[General]
network = Network
sim-time-limit = 200s
Network.nodeTx.gen.generationInterval = exponential(${genint=0.1..1 step 0.05})
Network.nodeTx.gen.packetByteSize = 12500
Network.queue.bufferSize = 200
Network.nodeRx.queue.bufferSize = 200
Network.nodeTx.queue.bufferSize = 1000000
