[General]
network = Network
sim-time-limit = 200s
Network.nodeTx.gen.generationInterval = exponential(${genint=0.1..1 step 0.05})
Network.nodeTx.gen.packetByteSize = 12500
Network.queue1.bufferSize = 200
Network.queue0.bufferSize = 200
Network.nodeRx.TransRx.bufferSize = 200
Network.nodeTx.TransTx.bufferSize = 1000000